/*--------------------------------*- C++ -*----------------------------------*\
| =========                 |                                                 |
| \\      /  F ield         | OpenFOAM: The Open Source CFD Toolbox           |
|  \\    /   O peration     | Version:  2.4.0                                 |
|   \\  /    A nd           | Web:      www.OpenFOAM.org                      |
|    \\/     M anipulation  |                                                 |
\*---------------------------------------------------------------------------*/
FoamFile
{
    version     2.0;
    format      ascii;
    class       dictionary;
    object      createPatchDict;
}
// * * * * * * * * * * * * * * * * * * * * * * * * * * * * * * * * * * * * * //

// Do a synchronisation of coupled points after creation of any patches.
// Note: this does not work with points that are on multiple coupled patches
//       with transformations (i.e. cyclics).
pointSync false;

// Patches to create.
patches
(
    {
        //- Master side patch
        name           LargeCylinderCyclic;
        patchInfo
        {
            type            cyclicAMI;
            matchTolerance  0.0001;
            transform       noOrdering;
            neighbourPatch  SmallCylinderCyclic; //cyclic2;
        }
        constructFrom patches;
        patches (cyclic);
    }

    {
        //- Slave side patch
        name            SmallCylinderCyclic;
        patchInfo
        {
            type            cyclicAMI;
            matchTolerance  0.0001;
            transform       noOrdering;
            neighbourPatch  LargeCylinderCyclic;  //cyclic;
        }
        constructFrom patches;
        patches (cyclic2);
    }
);

// ************************************************************************* //
