/*--------------------------------*- C++ -*----------------------------------*\
| =========                 |                                                 |
| \\      /  F ield         | OpenFOAM: The Open Source CFD Toolbox           |
|  \\    /   O peration     | Version:  v2206                                 |
|   \\  /    A nd           | Website:  www.openfoam.com                      |
|    \\/     M anipulation  |                                                 |
\*---------------------------------------------------------------------------*/
FoamFile
{
    version     2.0;
    format      ascii;
    class       dictionary;
    object      dynamicMeshDict;
}
// * * * * * * * * * * * * * * * * * * * * * * * * * * * * * * * * * * * * * //

dynamicFvMesh       dynamicOversetFvMesh;

solver          multiSolidBodyMotionSolver;

multiSolidBodyMotionSolverCoeffs
{
    movingZone
    {
        solidBodyMotionFunction rotatingMotion;
        rotatingMotionCoeffs
        {
            origin      (3.922 0 -0.320833);
            axis        (-1 0 0);
            omega       56.5487;
        }
    }
}

// ************************************************************************* //
